test/resources/terminalRef-tmp.xiidm
<?xml version="1.0" encoding="UTF-8"?>
<iidm:network xmlns:iidm="http://www.itesla_project.eu/schema/iidm/1_0" id="terminalRef" caseDate="2014-11-08T19:00:00+01:00" forecastDistance="0" sourceFormat="test">
    <iidm:substation id="S1" country="FR" tso="RTE">
        <iidm:voltageLevel id="VL4" nominalV="90" topologyKind="BUS_BREAKER">
            <iidm:busBreakerTopology>
                <iidm:bus id="VL41" v="91.126113899999993" angle="-11.178720500000001"/>
            </iidm:busBreakerTopology>
            <iidm:shunt id="SHUNT_VL4.11" bPerSection="0.0035802468191832304" maximumSectionCount="1" currentSectionCount="1" connectableBus="VL41" q="9999"/>
            <iidm:shunt id="SHUNT_VL4.21" bPerSection="0.0037037036381661892" maximumSectionCount="1" currentSectionCount="1" connectableBus="VL41" q="9999"/>
            <iidm:shunt id="SHUNT_VL4.31" bPerSection="0.0037037036381661892" maximumSectionCount="1" currentSectionCount="1" connectableBus="VL41" q="9999"/>
        </iidm:voltageLevel>
        <iidm:voltageLevel id="VL6" nominalV="225" topologyKind="BUS_BREAKER">
            <iidm:busBreakerTopology>
                <iidm:bus id="VL61" v="237.97369399999999" angle="-9.0618209800000002"/>
            </iidm:busBreakerTopology>
            <iidm:generator id="GEN" energySource="OTHER" minP="-9999.9899999999998" maxP="9999.9899999999998" voltageRegulatorOn="true" targetP="100" targetV="225" targetQ="0" bus="VL61" connectableBus="VL61">
                <iidm:regulatingTerminal id="SHUNT_VL4.31"/>
                <iidm:minMaxReactiveLimits minQ="-9999.9899999999998" maxQ="9999.9899999999998"/>
            </iidm:generator>
        </iidm:voltageLevel>
    </iidm:substation>
</iidm:network>
